 CRYSTAL
 PRIMVEC
      0.000000000000      7.884758000000      7.885432000000
      7.884758000000      0.000000000000      7.885432000000
      7.884758000000      7.884758000000      0.000000000000
 PRIMCOORD
          48           1
8         0.9854819117        0.9941545087        0.9968069356
8         2.9620659727        2.9567597100        0.9721480307
8         0.9929282166        2.9483558317        2.9556091282
8         2.9502390023        1.0038348919        2.9738266525
14         0.0159590601       -0.0109751819        0.0099933676
14         1.9759004205        1.9694319001        1.9639579075
8         4.9157846557        4.9262587199        0.9895746029
8         6.8823491727        6.9171740506        0.9906800834
8         4.9154082838        6.9121283355        2.9417809823
8         6.9170131870        4.9256507469        2.9685796425
14         3.9413977241        3.9557047487       -0.0113862044
14         5.9027263935        5.9048757432        1.9879406296
8         4.9128499493        0.9746175559        4.9287360257
8         6.9070327014        2.9592480360        4.9287602980
8         4.9338588107        2.9559668606        6.8879852449
8         6.9114667893        0.9960809904        6.9162640389
14         3.9486659594        0.0119455842        3.9587414598
14         5.9213119955        1.9849874590        5.9196377420
8         8.8791863028        4.9283051895        4.9297312275
8        10.8361929311        6.8868498234        4.9401007273
8         8.8785511050        6.9173585914        6.8849726745
8        10.8556678110        4.9362013177        6.8849216161
14         7.8696761176        3.9273219478        3.9311491234
14         9.8436161977        5.9134703909        5.9029102710
8         0.9805588979        4.9456866297        4.9162502371
8         2.9601102344        6.8927084593        4.9362874013
8         0.9898294640        6.8921284328        6.8939868622
8         2.9490373828        4.9260558763        6.9072447159
14         0.0060475668        3.9350802338        3.9357844508
14         1.9896534168        5.9236290372        5.9307969794
8         4.9460962241        8.8812841253        4.9299304737
8         6.9140193123       10.8532754511        4.9293450757
8         4.9416805374       10.8417589694        6.9137317865
8         6.9133246698        8.8713974828        6.9050048107
14         3.9433178068        7.9016180490        3.9340401274
14         5.8953710440        9.8421891088        5.9143472878
8         4.9357642593        4.9359732268        8.8591790171
8         6.9060876002        6.8968554529        8.8745811314
8         4.9281216922        6.9039049965       10.8299664009
8         6.9030906469        4.9462513527       10.8606443746
14         3.9406048023        3.9523778547        7.8722723476
14         5.9318404736        5.9236633515        9.8676708463
8         8.8730711203        8.8785847735        8.8631856615
8        10.8378774126       10.8581389469        8.8652072540
8         8.8528149108       10.8389399722       10.8425433522
8        10.8553462917        8.8759830321       10.8594068898
14         7.8715073320        7.8798335280        7.8899014677
14         9.8712421946        9.8517004220        9.8427401887
