 CRYSTAL
 PRIMVEC
      0.000000000000      7.884758000000      7.885432000000
      7.884758000000      0.000000000000      7.885432000000
      7.884758000000      7.884758000000      0.000000000000
 PRIMCOORD
          48           1
8         0.8599410394        1.0872324441        1.2824366103
8         2.6167324772        3.3025175622        0.5059391206
8         0.6912843348        2.6518193153        2.9225907806
8         3.1949582879        0.7059172641        3.1709973088
14        -0.1772355174        0.3598992830        0.3050168895
14         2.4158415332        2.1356442157        1.6393340643
8         4.7216159345        4.5771426812        1.2571551426
8         6.9886559115        6.7413679136        1.1010071823
8         4.6248703890        6.5716770239        2.6874720186
8         6.7286556110        5.0904658475        2.4997525994
14         4.0723253299        4.0763141145        0.3105875148
14         6.3353145565        6.0251106638        2.2848369881
8         4.5492419762        0.8959011255        4.8021045887
8         7.3463159821        2.5362773641        4.4859481869
8         5.3328839867        3.0245362781        6.8902454621
8         7.3439715658        1.1743375623        6.6495257861
14         4.3366643823        0.2626839286        4.0196960709
14         5.5977058663        2.3345880909        5.6859029556
8         8.3857794993        4.7562273615        5.3336613201
8        10.7001589619        7.3235668498        4.9757231595
8         9.2534630470        6.9532182691        6.9141689683
8        10.6688358477        4.5680249976        6.5319279017
14         8.2019002197        4.3220109792        3.9615027206
14         9.9417719526        5.8880697167        6.0419037826
8         0.6611182707        5.2738583643        5.1174794105
8         2.9179622136        6.7904669059        4.7686735601
8         0.9267480781        6.9423618301        6.9932965275
8         2.8127990224        5.3016279580        6.7280035979
14        -0.2641099424        3.9887326559        3.9748611285
14         2.1839406897        6.3068136148        5.6101913775
8         5.2777542724        9.0807211020        4.9683595856
8         7.1212066670       10.9503318814        4.6210172898
8         4.8611218507       10.9529620974        6.6353059370
8         7.3628595035        8.5763645215        7.2454447164
14         4.2727616254        7.8299287331        3.7596666075
14         6.1120282286        9.5625765384        6.1688726778
8         4.7257820749        4.8368513629        8.7939317849
8         7.3799151698        7.1519657015        9.2252656064
8         4.9488516551        6.9338366058       10.8700244786
8         6.8801109850        4.7303771478       10.4570119925
14         4.3418230424        3.7670604767        8.0400283703
14         5.9372314397        5.8341058898        9.5098929470
8         8.4752194162        8.6916013128        8.8914361966
8        10.6684612705       10.3813431782        8.6327023802
8         8.8999807075       10.3949303796       10.6808476547
8        11.1059437427        9.1827822635       11.0880058571
14         7.4071456602        8.2372881745        7.9910667520
14         9.7484872234       10.3008904644        9.7501184859
