 CRYSTAL
 PRIMVEC
      0.000000000000      7.884758000000      7.885432000000
      7.884758000000      0.000000000000      7.885432000000
      7.884758000000      7.884758000000      0.000000000000
 PRIMCOORD
          48           1
8         0.9678353488        1.0004741781        0.9747090320
8         2.9287244015        2.9333567849        0.9731902389
8         0.9757895042        2.9611671402        2.9469405454
8         2.9267654086        1.0018163535        2.9639119143
14         0.0225902039        0.0208593885        0.0056915916
14         1.9699904368        1.9593681006        1.9545751640
8         4.9570857653        4.9222868891        0.9603526125
8         6.8870459442        6.9111537500        0.9822806997
8         4.9388957223        6.9211346652        2.9776318233
8         6.8873621258        4.9041640281        2.9311463162
14         3.9242671540        3.9711278107        0.0027010151
14         5.8942487779        5.9040460083        1.9777722150
8         4.9107701128        0.9778615594        4.9228026586
8         6.9118847868        2.9754983938        4.9537958141
8         4.9338364450        2.9593960061        6.8928197694
8         6.9116420265        0.9773692247        6.8922250307
14         3.9456862867        0.0094207700        3.9181687495
14         5.9348805922        1.9518078244        5.9422967827
8         8.8861240785        4.9358414779        4.9026387324
8        10.8530719363        6.8707217525        4.9139513787
8         8.8575320198        6.8756907889        6.9070364803
8        10.8188441175        4.9365772859        6.9216260783
14         7.8552247942        3.9428157816        3.9331313921
14         9.8681586514        5.9185513507        5.8998075021
8         0.9637715349        4.9498592351        4.9182686108
8         2.9827209101        6.9283809927        4.9187370327
8         0.9663781958        6.9141914193        6.8857703699
8         2.9780420936        4.9260546099        6.9079140844
14        -0.0250656688        3.9610499958        3.9323678939
14         1.9430372211        5.8843915711        5.8935384941
8         4.9518043685        8.8631970462        4.9328148721
8         6.9212687372       10.8205018920        4.9107683284
8         4.9449642005       10.8111004308        6.9095546734
8         6.8923771841        8.8464032564        6.8839498275
14         3.9647714303        7.8990701615        3.9146926774
14         5.9193176529        9.8299890797        5.9131578703
8         4.9002770569        4.9010219247        8.8741149355
8         6.9074992590        6.9030526854        8.8808540778
8         4.9468901452        6.8974410801       10.8491785932
8         6.9103590987        4.9337514050       10.8324460056
14         3.9221820925        3.9205841978        7.8572275258
14         5.9412557197        5.9013137634        9.8456822563
8         8.8951000965        8.8470506679        8.8747782039
8        10.8390346626       10.8181267643        8.8617877252
8         8.8693646911       10.8242834187       10.8654986832
8        10.8161903511        8.8678441595       10.8196071770
14         7.8643369368        7.9143629937        7.8960828270
14         9.8684923447        9.8679268924        9.8697812853
