 CRYSTAL
 PRIMVEC
      0.000000000000      7.884758000000      7.885432000000
      7.884758000000      0.000000000000      7.885432000000
      7.884758000000      7.884758000000      0.000000000000
 PRIMCOORD
          48           1
8         1.0151272729        0.9525565215        1.0006387967
8         2.9307854507        2.9256156125        1.0126144926
8         1.0250517252        2.9379510911        2.9657898167
8         2.9738588702        1.0170402216        2.9455252459
14        -0.0070810157        0.0016919388       -0.0363837144
14         1.9899110372        1.9680401784        1.9731026366
8         4.9417792919        4.9186438624        1.0006668275
8         6.8888612177        6.9192491676        0.9647972826
8         4.9647653382        6.8994134895        2.9412561103
8         6.9186675963        4.9019225766        2.9218629241
14         3.9398288747        3.9770428769       -0.0096063181
14         5.9247304938        5.9298615251        1.9824754594
8         4.9462440571        0.9933909939        4.8987627102
8         6.9147639808        2.9903687410        4.9363572772
8         4.9576357154        2.9561308425        6.9278130312
8         6.9358474127        0.9681871064        6.9255395598
14         3.9621785115        0.0401091440        3.9389140556
14         5.9148104541        1.9433653812        5.9337672199
8         8.8909856682        4.9005438802        4.9569007087
8        10.8567060257        6.8602645584        4.9685374046
8         8.9103135264        6.8951943448        6.8747225896
8        10.8514582471        4.9521927130        6.9219737625
14         7.9092496657        3.9199771732        3.9637628199
14         9.8453560789        5.9081023813        5.9067400619
8         0.9743745295        4.8983675979        4.9070522599
8         2.9297256993        6.9308983270        4.9688494585
8         0.9948864764        6.8884837751        6.8684870908
8         2.9380662904        4.9282580972        6.8789686140
14         0.0270932015        3.9641871429        3.9564932179
14         1.9935788010        5.9425647478        5.8848773074
8         4.9379544718        8.8311524096        4.9054276913
8         6.8630588695       10.8424503336        4.9217417693
8         4.9124364146       10.8101722029        6.9137553596
8         6.9286704801        8.8541354536        6.9308630829
14         3.9482810291        7.8576369395        3.9489601937
14         5.9111674196        9.8167320606        5.9003340729
8         4.8969256523        4.9295591826        8.8392291818
8         6.8877971514        6.9299257709        8.8811313996
8         4.9468894882        6.8976276433       10.8594188807
8         6.9267576797        4.9552939998       10.8265881795
14         3.9221964706        3.9647107589        7.8456144570
14         5.8885125623        5.8907589842        9.8677992792
8         8.8787664219        8.8783041393        8.8821012279
8        10.8093774962       10.8333892985        8.8709596556
8         8.9010930392       10.8322277579       10.8197002714
8        10.8137671143        8.8682066182       10.8188631900
14         7.8760593650        7.8724396707        7.8702355711
14         9.8191252060        9.8720262849        9.8953660841
