 CRYSTAL
 PRIMVEC
      0.000000000000      7.884758000000      7.885432000000
      7.884758000000      0.000000000000      7.885432000000
      7.884758000000      7.884758000000      0.000000000000
 PRIMCOORD
          48           1
8         0.9135111210        1.0017024797        0.9762642146
8         3.0053683905        3.0155372866        0.9420292691
8         1.0749562489        2.9562306457        2.8697067204
8         2.8845310337        1.0415999429        2.9295385849
14         0.0369611161        0.0878220582        0.1059284801
14         2.0687741923        2.0933078920        2.0803990298
8         5.0492501314        4.9684753301        0.9178967560
8         6.8512812296        6.9583406659        1.0978259739
8         4.9842613743        6.9392915613        2.8740835609
8         6.9340284200        4.8947968621        2.9960824280
14         3.9714831884        4.0309287858       -0.0905339574
14         5.9095350881        5.8318384346        1.9343229442
8         4.8193764494        1.0370697642        4.9953188070
8         6.8799039639        3.0785454321        5.0211168867
8         4.8317395196        2.8531813583        6.8177325643
8         6.7882385252        1.0494157852        7.0115978287
14         4.0242530026        0.1177477521        3.8650819853
14         5.8370430186        1.9954870992        5.8787579700
8         8.8502697024        4.8377031249        4.8111018244
8        10.8434170897        6.9716527527        4.8572302169
8         8.8260815484        6.9325118749        6.9441699783
8        10.9496334380        4.8087862578        6.7929878420
14         7.8252424275        3.9210501942        3.8204295872
14         9.9055862114        5.9811678554        6.0086920211
8         0.8856385416        5.0180264466        4.9002060019
8         2.9490912740        6.8813567952        4.9743683750
8         1.0743364065        6.8410380427        6.8659108667
8         2.8713615265        5.0227964908        6.8202828614
14         0.0065905915        3.8836665749        3.9534596343
14         1.8695880829        5.8384725191        5.9680033597
8         4.9437872459        8.7568448650        4.8473383964
8         6.8881105155       10.9183511481        5.0058825924
8         4.8230959482       10.8513513788        6.9604716538
8         6.9391913368        8.8448654368        6.8421499247
14         4.0165265469        7.8099761843        3.8923590562
14         5.9813226993        9.8437217042        5.8708564737
8         4.9354166409        4.8686532199        8.9744975640
8         6.8257465378        7.0068542858        8.8682520254
8         4.9581993219        6.9697431851       10.7912719071
8         6.8692064709        4.9778653187       10.7599792341
14         3.8310997197        4.0582231568        7.9997183380
14         6.0040482666        5.7913229818        9.9483123925
8         8.8466384582        8.7841826173        8.7598465772
8        10.8028316130       10.7570384236        8.8983030810
8         8.8041012017       10.7789708272       10.8778207231
8        10.8667832809        8.9110685813       10.7981764906
14         7.7762653727        7.8076682883        7.9508905715
14         9.8788046665        9.7759592267        9.7868403598
