 CRYSTAL
 PRIMVEC
      0.000000000000      7.884758000000      7.885432000000
      7.884758000000      0.000000000000      7.885432000000
      7.884758000000      7.884758000000      0.000000000000
 PRIMCOORD
          48           1
8         1.0312888564        0.8115696852        0.7878071526
8         2.4857644950        2.9941026882        1.6295678684
8         0.9358257508        2.5654125335        2.3789315682
8         3.5737299989        1.5511247226        2.8795328002
14        -0.3034386914        0.1706101865        0.0094731438
14         1.4097482728        1.7463144716        1.6554862002
8         4.6350774436        4.4720166200        0.8912309838
8         7.3015984860        6.9632276427        0.5853939328
8         4.3330189876        6.6604384643        2.7202434170
8         7.1750119422        4.3213245080        3.0151125437
14         4.1204691786        4.3464540361       -0.1475304886
14         5.3160316401        6.4341206040        2.2749063313
8         5.4074055252        0.6750736896        4.9996369415
8         6.7940626583        2.8969437883        4.6602232577
8         4.9996676739        2.3768461135        6.3504391394
8         6.7784682166        1.0251896662        6.7099982144
14         4.0435895053       -0.2058727529        3.4518970985
14         5.5165840007        1.8181698785        5.6446563193
8         9.3162620308        5.3304387291        4.4053959324
8        10.3553973166        7.1130987074        5.1170494588
8         9.0842167372        7.2518850738        6.7702613886
8        11.2461524826        5.0063939814        7.4965525159
14         7.5858222227        3.7901532508        4.2635577529
14         9.4802526035        5.7197761485        6.2639101426
8         1.4145107059        4.6779637906        5.5225244476
8         3.1857950874        6.6083453025        5.0274388215
8         0.6650974174        7.0587594237        6.3885879276
8         3.4466163365        4.8362996952        7.2602799615
14        -0.3179016207        3.5930412384        3.3605819121
14         1.3584468446        6.4615043874        6.3465824999
8         4.8142681908        9.2858054743        5.1862845543
8         7.3294193756       10.6389465030        4.3953126916
8         4.4136285495       10.5991017339        7.5514549424
8         7.5285520417        8.4758406296        6.8120671539
14         3.9760221584        7.8162653149        3.3892466230
14         5.5822550691       10.2433934256        6.0193633720
8         5.2021500952        5.4666434692        8.8436698748
8         6.4182764697        6.5592624324        9.5034392912
8         5.5470258917        6.7937279642       11.4618929213
8         6.6673113077        4.3166868199       11.0803604198
14         4.2099605665        3.3084521370        8.5278278436
14         5.9918096124        5.8529319137        9.4035165708
8         9.0039943651        9.2889323815        8.5320259946
8        10.6065870604       10.6086556005        8.8776149000
8         8.5239406848       10.9824505232       11.4881073241
8        10.8144368203        8.8221908167       10.5238632579
14         7.9483223343        8.1315641398        7.8304952720
14         9.3507594373        9.8479988518        9.6275937436
