 CRYSTAL
 PRIMVEC
      0.000000000000      7.884758000000      7.885432000000
      7.884758000000      0.000000000000      7.885432000000
      7.884758000000      7.884758000000      0.000000000000
 PRIMCOORD
          48           1
8         0.9716513085        0.8782131554        1.0025813382
8         2.8073788445        2.8951490732        0.8798698554
8         1.1452906749        3.1197279753        2.8302579485
8         3.0214279244        0.9637327740        3.0181063875
14         0.1284349279        0.1117451881        0.0060247576
14         1.8456057421        1.9606373637        1.8593019296
8         5.0066269341        5.0922016632        1.0073533329
8         7.0565684582        6.7295280380        1.1429439155
8         4.9453674636        6.7580526682        3.0284500282
8         6.9656963030        4.8991039962        2.8203943228
14         3.9367554865        3.7865157603       -0.1274641909
14         5.8857725412        5.8826029018        1.9200319496
8         4.8472416067        1.0705123703        4.7961310598
8         6.8790089906        3.0269201203        5.0547045293
8         4.8183169790        3.0127098474        6.8046809142
8         6.7582086213        1.0658151406        6.9699711887
14         3.9283210477       -0.1283601062        4.0083064441
14         5.8912942461        1.9430283877        6.0192944811
8         8.7638984349        5.0895998718        4.9763462857
8        10.9106072890        6.9718435428        4.8038849700
8         8.8731168039        7.0588195249        6.7397843996
8        10.7072259985        4.9303090858        6.9297978726
14         7.9467882254        4.1092957588        3.9826090049
14         9.7824060457        5.8716241186        5.9386541429
8         1.0404095718        4.9662813732        5.0056136554
8         2.8014215607        6.9769628432        4.8024993230
8         1.1498898952        6.9298654799        6.9794851156
8         3.0581752773        4.9030713427        6.9247406578
14        -0.1264369304        4.0940897355        3.8482121334
14         1.8434586328        5.8332130473        5.7844518013
8         4.9360660623        8.8224045128        5.0042453326
8         6.8052848984       10.9441262365        4.9237973737
8         4.8726800636       10.8917322595        6.8775218840
8         6.7989725323        8.7155211148        6.7894434342
14         3.7940066571        8.0337570588        3.9436520374
14         5.9695058174        9.9567539756        5.7475208177
8         5.0908713409        5.0671209308        8.7319166272
8         6.7446706996        6.7304646367        8.7153569658
8         4.8516222319        6.9548453205       10.6733468322
8         6.9647050921        4.9391862050       10.9464457892
14         4.0266756082        3.7867116214        7.8570543393
14         5.8035923776        5.9257452048        9.6964484405
8         8.7682762366        8.8160911752        8.7030201995
8        10.7962564065       10.7827209630        8.9879692321
8         8.8817087451       10.8290137314       10.9188503500
8        10.8484670701        8.7672013348       10.6820466398
14         7.8209237622        7.9481200669        8.0188874729
14         9.8942986709       10.0119940251        9.7224719771
