 CRYSTAL
 PRIMVEC
      0.000000000000      7.884758000000      7.885432000000
      7.884758000000      0.000000000000      7.885432000000
      7.884758000000      7.884758000000      0.000000000000
 PRIMCOORD
          48           1
8         1.1692315231        0.7995571706        0.8597664607
8         3.1115976662        2.8586534431        0.9147694014
8         0.7965659968        3.0294629160        2.7435364401
8         2.8316171843        0.9734796052        3.0547229323
14        -0.1097945922       -0.0780096903       -0.0097629291
14         1.9799191061        2.0535400150        1.9126554067
8         4.8561076420        5.0201848170        1.1803473659
8         6.8863687400        6.8086852726        1.0020521978
8         4.8374642280        6.7412557599        2.9058383117
8         7.0204680979        4.8722560536        3.0035076050
14         4.1755921318        3.7801109246        0.1034964230
14         5.7231345923        5.8063164758        2.0840730082
8         4.6976741069        0.9682031438        4.8469384568
8         6.7578151092        2.7879000976        4.9005321306
8         5.0015598052        2.8053105246        7.1153532990
8         6.7940505637        1.1771365754        6.7268062997
14         4.1691421094       -0.1249758353        3.9379841106
14         6.0574032453        2.1909573589        6.1362414323
8         8.8922018031        4.9154055166        4.9917525128
8        10.8329508014        7.0627982105        4.8880368179
8         8.9088799372        7.0488629265        6.7214634233
8        10.7710176648        4.7654833109        6.9224245860
14         7.8812319127        4.0953891476        4.1079963018
14         9.6388837302        5.8474840559        5.8648919116
8         1.0407460600        5.0295349497        5.0613083564
8         3.1447304950        6.9486165106        5.1252032661
8         0.8151608180        6.6662057505        6.9888683310
8         2.8138877257        4.9489296156        6.7147502943
14         0.1553752225        3.9383421802        4.1112975346
14         2.0957760407        5.8099482436        5.8291704381
8         5.1414778717        8.8236402398        4.8520501988
8         7.0163704039       10.7933275877        4.7682233305
8         4.8325429513       10.8136857707        6.7250785177
8         6.8242398188        9.0117927142        7.0909764016
14         4.1182945619        7.8055924755        3.7523067116
14         6.0497663388        9.6341368073        5.7543153472
8         4.8687270916        5.0156151189        8.9858099725
8         6.8559437100        6.8146113235        8.9302314635
8         4.9764733686        7.1179619124       10.7394896885
8         6.6984613614        5.0675643331       10.9522753633
14         3.9514845581        4.1064273543        8.1112989497
14         6.1369606429        5.8981687509        9.6616590324
8         8.7908098072        9.0863239920        9.0606054011
8        10.9007573741       10.6155627516        8.9811207942
8         8.9993721653       10.7236558356       10.9946301715
8        10.7675097022        8.6932136978       10.8744197715
14         7.9945853757        7.7454768134        7.8954832211
14         9.9736835278        9.8895358974        9.8766527045
