 CRYSTAL
 PRIMVEC
      0.000000000000      7.884758000000      7.885432000000
      7.884758000000      0.000000000000      7.885432000000
      7.884758000000      7.884758000000      0.000000000000
 PRIMCOORD
          48           1
8         1.0788051602        1.5846854581        0.5857105700
8         2.7517264638        3.0092613426        0.7757912372
8         0.4752145650        2.8315276414        3.0554743360
8         2.9506554974        1.2513719384        3.1622179590
14        -0.2846313008       -0.6154304937       -0.1237153312
14         1.4570942975        2.3584961223        2.3827665265
8         4.6958744949        4.5843523422        0.7927723792
8         7.0679680710        6.9603400968        0.4518652644
8         5.4916443434        6.4652125745        2.4482154589
8         6.5718196216        4.9403449031        3.3804116980
14         3.3825614361        4.4073147749        0.2631238205
14         5.5262901922        6.5014686176        1.6916501990
8         4.6734296328        0.4628001612        5.2734824863
8         6.3285430663        2.6975353383        5.4805493118
8         4.7342869216        3.0862092005        6.9687544573
8         6.4772249257        1.0917114525        6.6388537806
14         3.3623472388        0.0518616618        4.1607651924
14         5.5596612967        1.8863902532        5.7844828200
8         9.2403775057        5.4586451374        4.7969628019
8        11.1145303685        7.3681777215        4.3799714625
8         8.3162956018        7.0740876066        6.6214101075
8        10.8143406243        5.4473532881        6.3507372514
14         7.9842190631        3.8949435516        4.2804784115
14        10.2945883886        5.2997339638        6.1014402271
8         1.5491326270        5.4587094673        5.5375323862
8         3.1173393808        6.8303134252        5.4212828049
8         0.6771960219        7.4247068545        7.2935783148
8         2.8932096282        5.4150993456        6.9164352384
14         0.4699534491        3.5081786633        4.4453321383
14         2.4835955240        5.5068730302        5.6809694350
8         5.0046903153        9.2799706833        4.4312706541
8         7.2006190923       10.3119184979        5.3043176770
8         4.3292109234       10.8487318738        6.6388021554
8         6.5720038634        9.2431908328        7.0652371452
14         4.0241723263        8.1450017517        4.4713591319
14         5.3763003641       10.3458071487        5.5916908205
8         4.6402064876        4.7445019816        9.4789784837
8         7.3597471293        6.6234953035        9.1487921984
8         4.6819638594        6.4904131094       11.3952041165
8         7.0977773298        5.0590882343       10.7172817676
14         3.3965208644        3.6985286396        7.8393110281
14         5.5223724660        5.3249636345        9.9158264386
8         9.4353258622        8.7573936997        8.6167572893
8        11.0099438400       10.2539919786        8.5696895047
8         8.6897870032       10.7938281535       10.6297408887
8        11.4308309704        8.3299855665       10.9578995194
14         7.8199252069        7.9996949315        8.1044450050
14         9.5054223437        9.8947196353        9.3938122831
