 CRYSTAL
 PRIMVEC
      0.000000000000      7.884758000000      7.885432000000
      7.884758000000      0.000000000000      7.885432000000
      7.884758000000      7.884758000000      0.000000000000
 PRIMCOORD
          48           1
8         0.7562953277        1.0665867700        0.8989059293
8         3.2221066622        2.9593932068        0.8183762358
8         0.8452900097        2.8405408494        2.7087540887
8         3.1030188468        0.7384630747        2.7307199601
14        -0.3544470117        0.3276999040        0.3124824414
14         1.7417838079        1.5981968637        1.9455950057
8         5.1922068660        4.6237847866        1.3376962930
8         7.1485004477        7.1734468137        1.2910611804
8         5.1944833473        7.2077024158        3.2433883916
8         7.1464901142        4.9675271896        3.0447993844
14         3.6151092260        3.6792970258       -0.1144558487
14         5.7498829807        5.6087209727        2.3287887006
8         5.0011512664        0.6155992508        4.7972876770
8         6.6377058051        2.9396838476        4.6745698997
8         4.9764481776        2.8754779636        6.7984448020
8         7.2338404726        1.2374568826        6.6071129252
14         3.6253424165       -0.3526319565        3.5780111658
14         6.1694111645        1.9809655774        5.8677226351
8         8.8364785901        5.0072857869        4.8328356638
8        10.8546987684        6.9232680645        4.7008259811
8         8.9582128257        7.0602951658        6.7651863469
8        10.9765700469        4.9174141021        6.8547795833
14         7.8943878856        4.1394376938        3.8714884118
14        10.1171488294        6.0892591851        6.2880620866
8         1.2792195996        5.0211094532        4.9271210710
8         2.9067686552        6.6360181843        4.7522952285
8         1.2311486512        6.5464705407        7.0260597382
8         3.1492776732        5.0647151203        6.8360315407
14        -0.3463357421        3.9113232946        3.8081439399
14         1.7384726977        5.5802659660        5.6990950488
8         5.0191522169        9.0434647529        4.9925897961
8         6.9151522992       10.6572013032        5.2360309735
8         4.9841446729       10.6828719545        7.0600519957
8         6.8394823644        8.9820043892        6.6276161376
14         4.0798094017        7.8464373047        3.8645504575
14         6.2798171048        9.7898089997        6.2002320882
8         4.5958402178        5.0785382972        9.0462388588
8         6.7336180031        6.9254364038        8.9697299238
8         4.7470047545        6.6263758564       10.8851462357
8         7.2210174643        4.9936956971       11.0579783211
14         4.0809391326        3.9073559596        7.7179084076
14         5.7943728786        5.7436144145        9.4926589181
8         9.1669210936        8.8086082552        8.9478264839
8        10.9367193574       11.2043084311        8.6950369056
8         8.5359258751       10.5257136615       10.9250213591
8        10.7215242629        8.5124227523       10.6076090281
14         8.2513790057        7.9738223090        8.0664111623
14        10.1207789725       10.1975792505       10.2272664901
